Circuit: * Z:\home\marifante\Projects\rpi_power_hat\rpi_power_warden_hat\sim\zvd_sim.asc

Instance "m:m1:1": Width narrower than recommended for a level 3 MOSFET.
.OP point found by inspection.

Date: Mon Jun 02 09:33:11 2025
Total elapsed time: 0.075 seconds.

tnom = 27
temp = 27
method = modified trap
totiter = 2725
traniter = 2725
tranpoints = 1306
accept = 1248
rejected = 58
matrix size = 23
fillins = 21
solver = Normal
Matrix Compiler1:     184 opcodes  0.4/0.2/[0.2]
Matrix Compiler2: off
